xflr5 v6.56

 Calculated polar for: HSNLF(1)-0213 AIRFOIL

 1 1 Reynolds number fixed          Mach number fixed         

 xtrf =   0.600 (top)        0.600 (bottom)
 Mach =   0.000     Re =     2.020 e 6     Ncrit =   5.000

  alpha     CL        CD       CDp       Cm    Top Xtr Bot Xtr   Cpmin    Chinge    XCp    
 ------- -------- --------- --------- -------- ------- ------- -------- --------- ---------
  -8.000  -0.7894   0.01190   0.00563  -0.0042  0.6000  0.0076  -6.5181   0.0000   0.0000   0.0000   0.2368
  -7.900  -0.7787   0.01179   0.00552  -0.0042  0.6000  0.0077  -6.3822   0.0000   0.0000   0.0000   0.2368
  -7.800  -0.7680   0.01168   0.00541  -0.0043  0.6000  0.0078  -6.2472   0.0000   0.0000   0.0000   0.2368
  -7.700  -0.7572   0.01158   0.00531  -0.0043  0.6000  0.0080  -6.1133   0.0000   0.0000   0.0000   0.2368
  -7.600  -0.7465   0.01148   0.00520  -0.0043  0.6000  0.0081  -5.9804   0.0000   0.0000   0.0000   0.2368
  -7.500  -0.7356   0.01138   0.00510  -0.0043  0.6000  0.0082  -5.8486   0.0000   0.0000   0.0000   0.2367
  -7.400  -0.7248   0.01128   0.00500  -0.0043  0.6000  0.0084  -5.7179   0.0000   0.0000   0.0000   0.2367
  -7.300  -0.7139   0.01118   0.00490  -0.0044  0.6000  0.0085  -5.5884   0.0000   0.0000   0.0000   0.2367
  -7.200  -0.7031   0.01109   0.00480  -0.0044  0.6000  0.0086  -5.4601   0.0000   0.0000   0.0000   0.2366
  -7.100  -0.6922   0.01100   0.00470  -0.0044  0.6000  0.0087  -5.3329   0.0000   0.0000   0.0000   0.2365
  -7.000  -0.6812   0.01090   0.00460  -0.0044  0.6000  0.0088  -5.2072   0.0000   0.0000   0.0000   0.2364
  -6.900  -0.6703   0.01081   0.00451  -0.0045  0.6000  0.0089  -5.0827   0.0000   0.0000   0.0000   0.2364
  -6.800  -0.6594   0.01072   0.00441  -0.0045  0.6000  0.0090  -4.9596   0.0000   0.0000   0.0000   0.2363
  -6.700  -0.6484   0.01063   0.00431  -0.0045  0.6000  0.0090  -4.8377   0.0000   0.0000   0.0000   0.2362
  -6.600  -0.6374   0.01054   0.00422  -0.0046  0.6000  0.0091  -4.7168   0.0000   0.0000   0.0000   0.2360
  -6.500  -0.6264   0.01045   0.00413  -0.0046  0.6000  0.0092  -4.5969   0.0000   0.0000   0.0000   0.2359
  -6.400  -0.6154   0.01036   0.00403  -0.0047  0.6000  0.0092  -4.4792   0.0000   0.0000   0.0000   0.2358
  -6.300  -0.6045   0.01025   0.00392  -0.0047  0.6000  0.0095  -4.3655   0.0000   0.0000   0.0000   0.2357
  -6.200  -0.5936   0.01014   0.00381  -0.0047  0.6000  0.0098  -4.2539   0.0000   0.0000   0.0000   0.2355
  -6.100  -0.5826   0.01005   0.00372  -0.0048  0.6000  0.0101  -4.1523   0.0000   0.0000   0.0000   0.2354
  -6.000  -0.5715   0.00996   0.00363  -0.0048  0.6000  0.0104  -4.0506   0.0000   0.0000   0.0000   0.2352
  -5.900  -0.5605   0.00988   0.00354  -0.0049  0.6000  0.0107  -3.9493   0.0000   0.0000   0.0000   0.2350
  -5.800  -0.5493   0.00979   0.00347  -0.0049  0.6000  0.0110  -3.8486   0.0000   0.0000   0.0000   0.2348
  -5.700  -0.5382   0.00971   0.00339  -0.0050  0.6000  0.0113  -3.7487   0.0000   0.0000   0.0000   0.2345
  -5.600  -0.5271   0.00964   0.00332  -0.0051  0.6000  0.0116  -3.6498   0.0000   0.0000   0.0000   0.2342
  -5.500  -0.5159   0.00956   0.00324  -0.0051  0.6000  0.0118  -3.5517   0.0000   0.0000   0.0000   0.2339
  -5.400  -0.5047   0.00949   0.00317  -0.0052  0.6000  0.0121  -3.4544   0.0000   0.0000   0.0000   0.2336
  -5.300  -0.4934   0.00942   0.00311  -0.0053  0.6000  0.0124  -3.3577   0.0000   0.0000   0.0000   0.2333
  -5.200  -0.4822   0.00936   0.00304  -0.0054  0.6000  0.0126  -3.2618   0.0000   0.0000   0.0000   0.2329
  -5.100  -0.4709   0.00929   0.00297  -0.0054  0.6000  0.0128  -3.1673   0.0000   0.0000   0.0000   0.2325
  -5.000  -0.4598   0.00921   0.00289  -0.0055  0.6000  0.0135  -3.0759   0.0000   0.0000   0.0000   0.2321
  -4.900  -0.4485   0.00913   0.00282  -0.0056  0.6000  0.0141  -2.9841   0.0000   0.0000   0.0000   0.2317
  -4.800  -0.4373   0.00906   0.00275  -0.0057  0.6000  0.0147  -2.8928   0.0000   0.0000   0.0000   0.2312
  -4.700  -0.4260   0.00899   0.00269  -0.0057  0.6000  0.0152  -2.8022   0.0000   0.0000   0.0000   0.2307
  -4.600  -0.4147   0.00893   0.00263  -0.0058  0.6000  0.0157  -2.7126   0.0000   0.0000   0.0000   0.2302
  -4.500  -0.4034   0.00886   0.00258  -0.0059  0.6000  0.0161  -2.6297   0.0000   0.0000   0.0000   0.2296
  -4.400  -0.3920   0.00881   0.00252  -0.0060  0.6000  0.0165  -2.5519   0.0000   0.0000   0.0000   0.2289
  -4.300  -0.3807   0.00875   0.00246  -0.0061  0.6000  0.0168  -2.4747   0.0000   0.0000   0.0000   0.2282
  -4.200  -0.3693   0.00870   0.00241  -0.0062  0.6000  0.0170  -2.3981   0.0000   0.0000   0.0000   0.2274
  -4.100  -0.3579   0.00863   0.00235  -0.0063  0.6000  0.0177  -2.3238   0.0000   0.0000   0.0000   0.2267
  -4.000  -0.3466   0.00856   0.00229  -0.0064  0.6000  0.0186  -2.2499   0.0000   0.0000   0.0000   0.2258
  -3.900  -0.3352   0.00850   0.00224  -0.0065  0.6000  0.0194  -2.1761   0.0000   0.0000   0.0000   0.2249
  -3.800  -0.3238   0.00844   0.00218  -0.0066  0.6000  0.0202  -2.1029   0.0000   0.0000   0.0000   0.2239
  -3.700  -0.3124   0.00838   0.00213  -0.0067  0.6000  0.0209  -2.0303   0.0000   0.0000   0.0000   0.2228
  -3.600  -0.3010   0.00833   0.00208  -0.0068  0.6000  0.0216  -1.9585   0.0000   0.0000   0.0000   0.2217
  -3.500  -0.2895   0.00828   0.00204  -0.0069  0.6000  0.0221  -1.8874   0.0000   0.0000   0.0000   0.2204
  -3.400  -0.2780   0.00823   0.00199  -0.0070  0.6000  0.0225  -1.8170   0.0000   0.0000   0.0000   0.2189
  -3.300  -0.2666   0.00818   0.00194  -0.0072  0.6000  0.0236  -1.7480   0.0000   0.0000   0.0000   0.2174
  -3.200  -0.2551   0.00812   0.00190  -0.0073  0.6000  0.0251  -1.6798   0.0000   0.0000   0.0000   0.2157
  -3.100  -0.2437   0.00806   0.00185  -0.0074  0.6000  0.0265  -1.6122   0.0000   0.0000   0.0000   0.2139
  -3.000  -0.2322   0.00801   0.00181  -0.0075  0.6000  0.0279  -1.5451   0.0000   0.0000   0.0000   0.2119
  -2.900  -0.2208   0.00795   0.00177  -0.0076  0.6000  0.0295  -1.4789   0.0000   0.0000   0.0000   0.2096
  -2.800  -0.2094   0.00788   0.00172  -0.0077  0.6000  0.0337  -1.4139   0.0000   0.0000   0.0000   0.2071
  -2.700  -0.1980   0.00782   0.00167  -0.0078  0.6000  0.0376  -1.3495   0.0000   0.0000   0.0000   0.2044
  -2.600  -0.1866   0.00773   0.00163  -0.0079  0.6000  0.0450  -1.2865   0.0000   0.0000   0.0000   0.2013
  -2.500  -0.1752   0.00767   0.00159  -0.0081  0.6000  0.0498  -1.2237   0.0000   0.0000   0.0000   0.1977
  -2.400  -0.1638   0.00760   0.00155  -0.0082  0.6000  0.0572  -1.1621   0.0000   0.0000   0.0000   0.1937
  -2.300  -0.1523   0.00753   0.00151  -0.0083  0.6000  0.0623  -1.1010   0.0000   0.0000   0.0000   0.1890
  -2.200  -0.1408   0.00748   0.00148  -0.0084  0.6000  0.0687  -1.0407   0.0000   0.0000   0.0000   0.1835
  -2.100  -0.1294   0.00740   0.00144  -0.0086  0.6000  0.0765  -0.9814   0.0000   0.0000   0.0000   0.1771
  -2.000  -0.1179   0.00734   0.00141  -0.0087  0.6000  0.0842  -0.9228   0.0000   0.0000   0.0000   0.1693
  -1.900  -0.1066   0.00726   0.00137  -0.0088  0.6000  0.0961  -0.8657   0.0000   0.0000   0.0000   0.1600
  -1.800  -0.0953   0.00715   0.00132  -0.0089  0.6000  0.1140  -0.8164   0.0000   0.0000   0.0000   0.1486
  -1.700  -0.0841   0.00704   0.00128  -0.0090  0.6000  0.1354  -0.7679   0.0000   0.0000   0.0000   0.1342
  -1.600  -0.0729   0.00691   0.00124  -0.0092  0.6000  0.1586  -0.7202   0.0000   0.0000   0.0000   0.1154
  -1.500  -0.0616   0.00680   0.00120  -0.0093  0.6000  0.1814  -0.6773   0.0000   0.0000   0.0000   0.0896
  -1.400  -0.0503   0.00669   0.00116  -0.0094  0.6000  0.2031  -0.6361   0.0000   0.0000   0.0000   0.0519
  -1.300  -0.0390   0.00658   0.00112  -0.0096  0.6000  0.2251  -0.5954   0.0000   0.0000   0.0000  -0.0078
  -1.200  -0.0280   0.00642   0.00108  -0.0097  0.6000  0.2604  -0.5559   0.0000   0.0000   0.0000  -0.1125
  -1.100  -0.0171   0.00622   0.00102  -0.0098  0.6000  0.3051  -0.5171   0.0000   0.0000   0.0000  -0.3489
  -1.000  -0.0063   0.00599   0.00096  -0.0099  0.6000  0.3554  -0.4791   0.0000   0.0000   0.0000  -1.3903
  -0.900   0.0047   0.00579   0.00091  -0.0101  0.6000  0.4001  -0.4446   0.0000   0.0000   0.0000   2.4693
  -0.800   0.0156   0.00558   0.00085  -0.0102  0.6000  0.4481  -0.4363   0.0000   0.0000   0.0000   0.9232
  -0.700   0.0263   0.00530   0.00078  -0.0104  0.6000  0.5094  -0.4401   0.0000   0.0000   0.0000   0.6529
  -0.600   0.0364   0.00487   0.00065  -0.0105  0.6000  0.6000  -0.4438   0.0000   0.0000   0.0000   0.5424
  -0.500   0.0483   0.00487   0.00065  -0.0106  0.6000  0.6000  -0.4481   0.0000   0.0000   0.0000   0.4731
  -0.400   0.0602   0.00487   0.00064  -0.0108  0.6000  0.6000  -0.4525   0.0000   0.0000   0.0000   0.4312
  -0.300   0.0721   0.00487   0.00064  -0.0110  0.6000  0.6000  -0.4568   0.0000   0.0000   0.0000   0.4031
  -0.200   0.0841   0.00488   0.00064  -0.0112  0.6000  0.6000  -0.4612   0.0000   0.0000   0.0000   0.3830
  -0.100   0.0960   0.00488   0.00063  -0.0114  0.6000  0.6000  -0.4655   0.0000   0.0000   0.0000   0.3679
   0.000   0.1079   0.00488   0.00063  -0.0116  0.6000  0.6000  -0.4698   0.0000   0.0000   0.0000   0.3562
   0.100   0.1198   0.00488   0.00063  -0.0118  0.6000  0.6000  -0.4742   0.0000   0.0000   0.0000   0.3467
   0.200   0.1317   0.00488   0.00063  -0.0119  0.6000  0.6000  -0.4785   0.0000   0.0000   0.0000   0.3390
   0.300   0.1436   0.00488   0.00063  -0.0121  0.6000  0.6000  -0.4829   0.0000   0.0000   0.0000   0.3326
   0.400   0.1555   0.00488   0.00063  -0.0123  0.6000  0.6000  -0.4874   0.0000   0.0000   0.0000   0.3271
   0.500   0.1675   0.00489   0.00063  -0.0125  0.6000  0.6000  -0.4919   0.0000   0.0000   0.0000   0.3224
   0.600   0.1794   0.00489   0.00063  -0.0127  0.6000  0.6000  -0.4964   0.0000   0.0000   0.0000   0.3184
   0.700   0.1913   0.00489   0.00064  -0.0129  0.6000  0.6000  -0.5009   0.0000   0.0000   0.0000   0.3148
   0.800   0.2032   0.00489   0.00064  -0.0131  0.6000  0.6000  -0.5054   0.0000   0.0000   0.0000   0.3117
   0.900   0.2151   0.00490   0.00064  -0.0132  0.6000  0.6000  -0.5102   0.0000   0.0000   0.0000   0.3089
   1.000   0.2270   0.00490   0.00065  -0.0134  0.6000  0.6000  -0.5171   0.0000   0.0000   0.0000   0.3064
   1.100   0.2389   0.00490   0.00065  -0.0136  0.6000  0.6000  -0.5243   0.0000   0.0000   0.0000   0.3041
   1.200   0.2508   0.00491   0.00066  -0.0138  0.6000  0.6000  -0.5323   0.0000   0.0000   0.0000   0.3021
   1.300   0.2627   0.00491   0.00067  -0.0140  0.6000  0.6000  -0.5416   0.0000   0.0000   0.0000   0.3002
   1.400   0.2746   0.00491   0.00067  -0.0142  0.6000  0.6000  -0.5521   0.0000   0.0000   0.0000   0.2985
   1.500   0.2865   0.00492   0.00068  -0.0144  0.6000  0.6000  -0.5660   0.0000   0.0000   0.0000   0.2969
   1.600   0.2981   0.00498   0.00070  -0.0145  0.5876  0.6000  -0.5831   0.0000   0.0000   0.0000   0.2954
   1.700   0.3094   0.00511   0.00074  -0.0147  0.5632  0.6000  -0.6004   0.0000   0.0000   0.0000   0.2940
   1.800   0.3203   0.00529   0.00080  -0.0148  0.5324  0.6000  -0.6191   0.0000   0.0000   0.0000   0.2926
   1.900   0.3314   0.00546   0.00087  -0.0149  0.5053  0.6000  -0.6429   0.0000   0.0000   0.0000   0.2914
   2.200   0.3636   0.00615   0.00114  -0.0153  0.4004  0.6000  -0.7147   0.0000   0.0000   0.0000   0.2882
   2.300   0.3747   0.00630   0.00121  -0.0154  0.3781  0.6000  -0.7424   0.0000   0.0000   0.0000   0.2873
   2.400   0.3859   0.00642   0.00126  -0.0156  0.3618  0.6000  -0.7772   0.0000   0.0000   0.0000   0.2864
   2.500   0.3970   0.00655   0.00132  -0.0157  0.3438  0.6000  -0.8137   0.0000   0.0000   0.0000   0.2855
   2.600   0.4081   0.00669   0.00139  -0.0159  0.3241  0.6000  -0.8504   0.0000   0.0000   0.0000   0.2847
   2.700   0.4191   0.00683   0.00146  -0.0160  0.3041  0.6000  -0.8874   0.0000   0.0000   0.0000   0.2839
   2.900   0.4405   0.00723   0.00163  -0.0162  0.2497  0.6000  -0.9609   0.0000   0.0000   0.0000   0.2824
   3.000   0.4512   0.00742   0.00172  -0.0163  0.2248  0.6000  -0.9982   0.0000   0.0000   0.0000   0.2817
   3.200   0.4730   0.00771   0.00186  -0.0165  0.1897  0.6000  -1.0747   0.0000   0.0000   0.0000   0.2804
   3.300   0.4839   0.00784   0.00193  -0.0166  0.1746  0.6000  -1.1136   0.0000   0.0000   0.0000   0.2797
   3.400   0.4950   0.00796   0.00200  -0.0168  0.1612  0.6000  -1.1530   0.0000   0.0000   0.0000   0.2791
   3.600   0.5170   0.00819   0.00213  -0.0170  0.1395  0.6000  -1.2328   0.0000   0.0000   0.0000   0.2779
   3.700   0.5283   0.00827   0.00219  -0.0171  0.1324  0.6000  -1.2738   0.0000   0.0000   0.0000   0.2774
   3.800   0.5393   0.00838   0.00226  -0.0172  0.1233  0.6000  -1.3145   0.0000   0.0000   0.0000   0.2769
   3.900   0.5505   0.00846   0.00231  -0.0173  0.1167  0.6000  -1.3561   0.0000   0.0000   0.0000   0.2763
   4.000   0.5615   0.00856   0.00238  -0.0174  0.1096  0.6000  -1.3977   0.0000   0.0000   0.0000   0.2758
   4.100   0.5726   0.00867   0.00244  -0.0175  0.1016  0.6000  -1.4426   0.0000   0.0000   0.0000   0.2753
   4.200   0.5837   0.00874   0.00250  -0.0177  0.0967  0.6000  -1.4902   0.0000   0.0000   0.0000   0.2749
   4.300   0.5947   0.00885   0.00257  -0.0178  0.0901  0.6000  -1.5378   0.0000   0.0000   0.0000   0.2744
   4.400   0.6058   0.00894   0.00264  -0.0179  0.0845  0.6000  -1.5861   0.0000   0.0000   0.0000   0.2739
   4.500   0.6169   0.00902   0.00269  -0.0180  0.0807  0.6000  -1.6350   0.0000   0.0000   0.0000   0.2735
   4.600   0.6278   0.00913   0.00278  -0.0181  0.0747  0.6000  -1.6836   0.0000   0.0000   0.0000   0.2731
   4.700   0.6388   0.00922   0.00285  -0.0182  0.0689  0.6000  -1.7329   0.0000   0.0000   0.0000   0.2726
   4.800   0.6499   0.00931   0.00291  -0.0183  0.0650  0.6000  -1.7828   0.0000   0.0000   0.0000   0.2722
   4.900   0.6607   0.00943   0.00300  -0.0183  0.0595  0.6000  -1.8326   0.0000   0.0000   0.0000   0.2718
   5.000   0.6716   0.00952   0.00307  -0.0184  0.0550  0.6000  -1.8831   0.0000   0.0000   0.0000   0.2714
   5.100   0.6827   0.00960   0.00314  -0.0185  0.0530  0.6000  -1.9345   0.0000   0.0000   0.0000   0.2710
   5.200   0.6937   0.00968   0.00321  -0.0186  0.0508  0.6000  -1.9860   0.0000   0.0000   0.0000   0.2706
   5.300   0.7046   0.00978   0.00328  -0.0187  0.0483  0.6000  -2.0378   0.0000   0.0000   0.0000   0.2702
   5.400   0.7155   0.00987   0.00336  -0.0188  0.0455  0.6000  -2.0899   0.0000   0.0000   0.0000   0.2698
   5.500   0.7266   0.00995   0.00343  -0.0189  0.0432  0.6000  -2.1426   0.0000   0.0000   0.0000   0.2694
   5.600   0.7376   0.01002   0.00350  -0.0190  0.0423  0.6000  -2.1960   0.0000   0.0000   0.0000   0.2691
   5.700   0.7486   0.01010   0.00357  -0.0191  0.0412  0.6000  -2.2497   0.0000   0.0000   0.0000   0.2687
   5.800   0.7595   0.01018   0.00365  -0.0192  0.0397  0.6000  -2.3036   0.0000   0.0000   0.0000   0.2684
   5.900   0.7703   0.01028   0.00373  -0.0192  0.0380  0.6000  -2.3577   0.0000   0.0000   0.0000   0.2680
   6.000   0.7811   0.01038   0.00381  -0.0193  0.0362  0.6000  -2.4120   0.0000   0.0000   0.0000   0.2677
   6.100   0.7919   0.01047   0.00390  -0.0194  0.0342  0.6000  -2.4665   0.0000   0.0000   0.0000   0.2673
   6.200   0.8028   0.01056   0.00398  -0.0194  0.0330  0.6000  -2.5217   0.0000   0.0000   0.0000   0.2670
   6.300   0.8137   0.01064   0.00406  -0.0195  0.0324  0.6000  -2.5776   0.0000   0.0000   0.0000   0.2666
   6.400   0.8245   0.01072   0.00414  -0.0196  0.0317  0.6000  -2.6396   0.0000   0.0000   0.0000   0.2663
   6.500   0.8353   0.01081   0.00422  -0.0197  0.0309  0.6000  -2.7020   0.0000   0.0000   0.0000   0.2660
   6.600   0.8460   0.01090   0.00432  -0.0197  0.0300  0.6000  -2.7647   0.0000   0.0000   0.0000   0.2656
   6.700   0.8567   0.01100   0.00441  -0.0198  0.0291  0.6000  -2.8276   0.0000   0.0000   0.0000   0.2653
   6.800   0.8673   0.01111   0.00450  -0.0198  0.0281  0.6000  -2.8908   0.0000   0.0000   0.0000   0.2650
   6.900   0.8779   0.01121   0.00460  -0.0199  0.0270  0.6000  -2.9544   0.0000   0.0000   0.0000   0.2646
   7.000   0.8885   0.01131   0.00469  -0.0199  0.0258  0.6000  -3.0180   0.0000   0.0000   0.0000   0.2643
   7.100   0.8991   0.01141   0.00479  -0.0200  0.0251  0.6000  -3.0825   0.0000   0.0000   0.0000   0.2640
   7.200   0.9098   0.01149   0.00488  -0.0200  0.0249  0.6000  -3.1483   0.0000   0.0000   0.0000   0.2636
   7.300   0.9204   0.01158   0.00497  -0.0201  0.0246  0.6000  -3.2143   0.0000   0.0000   0.0000   0.2633
   7.400   0.9310   0.01168   0.00507  -0.0201  0.0244  0.6000  -3.2806   0.0000   0.0000   0.0000   0.2630
   7.500   0.9416   0.01177   0.00516  -0.0201  0.0241  0.6000  -3.3473   0.0000   0.0000   0.0000   0.2627
   7.600   0.9521   0.01187   0.00527  -0.0202  0.0238  0.6000  -3.4143   0.0000   0.0000   0.0000   0.2624
   7.700   0.9626   0.01197   0.00537  -0.0202  0.0235  0.6000  -3.4816   0.0000   0.0000   0.0000   0.2621
   7.800   0.9730   0.01207   0.00548  -0.0202  0.0232  0.6000  -3.5492   0.0000   0.0000   0.0000   0.2617
   7.900   0.9834   0.01218   0.00558  -0.0203  0.0229  0.6000  -3.6171   0.0000   0.0000   0.0000   0.2614
   8.000   0.9937   0.01229   0.00569  -0.0203  0.0226  0.6000  -3.6852   0.0000   0.0000   0.0000   0.2611
   8.100   1.0040   0.01240   0.00580  -0.0203  0.0222  0.6000  -3.7537   0.0000   0.0000   0.0000   0.2608
   8.200   1.0142   0.01252   0.00592  -0.0203  0.0219  0.6000  -3.8224   0.0000   0.0000   0.0000   0.2604
   8.300   1.0243   0.01263   0.00603  -0.0203  0.0216  0.6000  -3.8914   0.0000   0.0000   0.0000   0.2601
   8.400   1.0345   0.01275   0.00615  -0.0203  0.0213  0.6000  -3.9605   0.0000   0.0000   0.0000   0.2598
   8.500   1.0446   0.01287   0.00627  -0.0202  0.0209  0.6000  -4.0298   0.0000   0.0000   0.0000   0.2594
   8.600   1.0546   0.01300   0.00640  -0.0202  0.0205  0.6000  -4.0990   0.0000   0.0000   0.0000   0.2591
   8.700   1.0645   0.01313   0.00654  -0.0202  0.0200  0.6000  -4.1712   0.0000   0.0000   0.0000   0.2588
   8.800   1.0744   0.01326   0.00668  -0.0201  0.0196  0.6000  -4.2469   0.0000   0.0000   0.0000   0.2584
   8.900   1.0841   0.01341   0.00683  -0.0201  0.0191  0.6000  -4.3226   0.0000   0.0000   0.0000   0.2580
   9.000   1.0940   0.01353   0.00697  -0.0200  0.0189  0.6000  -4.4001   0.0000   0.0000   0.0000   0.2577
   9.100   1.1040   0.01364   0.00708  -0.0200  0.0188  0.6000  -4.4802   0.0000   0.0000   0.0000   0.2574
   9.200   1.1140   0.01375   0.00719  -0.0200  0.0187  0.6000  -4.5607   0.0000   0.0000   0.0000   0.2571
   9.300   1.1240   0.01386   0.00731  -0.0200  0.0186  0.6000  -4.6415   0.0000   0.0000   0.0000   0.2567
   9.400   1.1339   0.01397   0.00743  -0.0199  0.0185  0.6000  -4.7227   0.0000   0.0000   0.0000   0.2564
   9.500   1.1437   0.01409   0.00755  -0.0199  0.0183  0.6000  -4.8041   0.0000   0.0000   0.0000   0.2561
   9.600   1.1534   0.01421   0.00768  -0.0199  0.0181  0.6000  -4.8857   0.0000   0.0000   0.0000   0.2558
   9.700   1.1630   0.01434   0.00781  -0.0198  0.0179  0.6000  -4.9672   0.0000   0.0000   0.0000   0.2554
   9.800   1.1726   0.01447   0.00795  -0.0197  0.0177  0.6000  -5.0487   0.0000   0.0000   0.0000   0.2551
   9.900   1.1820   0.01460   0.00810  -0.0196  0.0175  0.6000  -5.1301   0.0000   0.0000   0.0000   0.2547
  10.000   1.1914   0.01474   0.00824  -0.0195  0.0173  0.6000  -5.2115   0.0000   0.0000   0.0000   0.2544
  10.100   1.2007   0.01489   0.00839  -0.0194  0.0171  0.6000  -5.2932   0.0000   0.0000   0.0000   0.2540
  10.200   1.2099   0.01503   0.00855  -0.0193  0.0169  0.6000  -5.3750   0.0000   0.0000   0.0000   0.2536
  10.300   1.2190   0.01518   0.00870  -0.0192  0.0167  0.6000  -5.4569   0.0000   0.0000   0.0000   0.2533
  10.400   1.2280   0.01534   0.00886  -0.0191  0.0165  0.6000  -5.5388   0.0000   0.0000   0.0000   0.2529
  10.500   1.2369   0.01549   0.00902  -0.0189  0.0163  0.6000  -5.6209   0.0000   0.0000   0.0000   0.2525
  10.600   1.2456   0.01566   0.00919  -0.0188  0.0161  0.6000  -5.7029   0.0000   0.0000   0.0000   0.2521
  10.700   1.2543   0.01582   0.00936  -0.0186  0.0159  0.6000  -5.7848   0.0000   0.0000   0.0000   0.2517
  10.800   1.2629   0.01599   0.00954  -0.0184  0.0157  0.6000  -5.8667   0.0000   0.0000   0.0000   0.2513
  10.900   1.2712   0.01617   0.00972  -0.0182  0.0154  0.6000  -5.9481   0.0000   0.0000   0.0000   0.2509
  11.000   1.2787   0.01634   0.00990  -0.0178  0.0152  0.6000  -6.0261   0.0000   0.0000   0.0000   0.2504
  11.100   1.2854   0.01652   0.01009  -0.0173  0.0150  0.6000  -6.1006   0.0000   0.0000   0.0000   0.2497
  11.200   1.2923   0.01672   0.01029  -0.0169  0.0148  0.6000  -6.1764   0.0000   0.0000   0.0000   0.2492
  11.300   1.2997   0.01693   0.01053  -0.0166  0.0146  0.6000  -6.2542   0.0000   0.0000   0.0000   0.2487
  11.400   1.3072   0.01716   0.01077  -0.0164  0.0144  0.6000  -6.3341   0.0000   0.0000   0.0000   0.2483
  11.500   1.3147   0.01740   0.01102  -0.0161  0.0142  0.6000  -6.4188   0.0000   0.0000   0.0000   0.2479
  11.600   1.3220   0.01765   0.01128  -0.0159  0.0140  0.6000  -6.5032   0.0000   0.0000   0.0000   0.2475
  11.700   1.3297   0.01787   0.01151  -0.0157  0.0139  0.6000  -6.5916   0.0000   0.0000   0.0000   0.2471
  11.800   1.3375   0.01808   0.01174  -0.0155  0.0139  0.6000  -6.6808   0.0000   0.0000   0.0000   0.2467
  11.900   1.3452   0.01831   0.01198  -0.0153  0.0138  0.6000  -6.7701   0.0000   0.0000   0.0000   0.2463
  12.000   1.3528   0.01854   0.01222  -0.0152  0.0137  0.6000  -6.8594   0.0000   0.0000   0.0000   0.2460
  12.100   1.3603   0.01877   0.01247  -0.0150  0.0137  0.6000  -6.9487   0.0000   0.0000   0.0000   0.2456
  12.200   1.3678   0.01901   0.01272  -0.0148  0.0136  0.6000  -7.0378   0.0000   0.0000   0.0000   0.2452
  12.300   1.3751   0.01926   0.01299  -0.0146  0.0135  0.6000  -7.1270   0.0000   0.0000   0.0000   0.2448
  12.400   1.3824   0.01951   0.01325  -0.0143  0.0134  0.6000  -7.2191   0.0000   0.0000   0.0000   0.2444
  12.500   1.3897   0.01977   0.01352  -0.0141  0.0132  0.6000  -7.3500   0.0000   0.0000   0.0000   0.2441
  12.600   1.3967   0.02004   0.01380  -0.0139  0.0131  0.6000  -7.4806   0.0000   0.0000   0.0000   0.2437
  12.700   1.4037   0.02031   0.01408  -0.0137  0.0129  0.6000  -7.6113   0.0000   0.0000   0.0000   0.2433
  12.800   1.4106   0.02058   0.01437  -0.0135  0.0128  0.6000  -7.7426   0.0000   0.0000   0.0000   0.2429
  12.900   1.4175   0.02087   0.01466  -0.0132  0.0126  0.6000  -7.8744   0.0000   0.0000   0.0000   0.2425
  13.000   1.4242   0.02116   0.01497  -0.0130  0.0124  0.6000  -8.0061   0.0000   0.0000   0.0000   0.2421
  13.100   1.4308   0.02146   0.01528  -0.0127  0.0123  0.6000  -8.1381   0.0000   0.0000   0.0000   0.2417
  13.200   1.4374   0.02176   0.01559  -0.0125  0.0121  0.6000  -8.2705   0.0000   0.0000   0.0000   0.2413
  13.300   1.4439   0.02207   0.01591  -0.0122  0.0119  0.6000  -8.4030   0.0000   0.0000   0.0000   0.2409
  13.400   1.4502   0.02238   0.01624  -0.0120  0.0117  0.6000  -8.5349   0.0000   0.0000   0.0000   0.2405
  13.500   1.4563   0.02272   0.01658  -0.0117  0.0115  0.6000  -8.6663   0.0000   0.0000   0.0000   0.2401
  13.600   1.4623   0.02305   0.01692  -0.0114  0.0114  0.6000  -8.7979   0.0000   0.0000   0.0000   0.2396
  13.700   1.4684   0.02339   0.01727  -0.0111  0.0112  0.6000  -8.9303   0.0000   0.0000   0.0000   0.2392
  13.800   1.4744   0.02373   0.01762  -0.0108  0.0110  0.6000  -9.0634   0.0000   0.0000   0.0000   0.2388
  13.900   1.4803   0.02409   0.01798  -0.0106  0.0108  0.6000  -9.1957   0.0000   0.0000   0.0000   0.2384
  14.000   1.4859   0.02446   0.01837  -0.0103  0.0106  0.6000  -9.3271   0.0000   0.0000   0.0000   0.2380
  14.100   1.4915   0.02483   0.01876  -0.0100  0.0104  0.6000  -9.4585   0.0000   0.0000   0.0000   0.2376
  14.200   1.4970   0.02520   0.01914  -0.0097  0.0102  0.6000  -9.5903   0.0000   0.0000   0.0000   0.2371
  14.300   1.5026   0.02557   0.01952  -0.0094  0.0101  0.6000  -9.7239   0.0000   0.0000   0.0000   0.2367
  14.400   1.5083   0.02593   0.01991  -0.0091  0.0101  0.6000  -9.8583   0.0000   0.0000   0.0000   0.2363
  14.500   1.5136   0.02632   0.02032  -0.0088  0.0100  0.6000  -9.9914   0.0000   0.0000   0.0000   0.2359
  14.600   1.5189   0.02672   0.02073  -0.0085  0.0099  0.6000  -10.1246   0.0000   0.0000   0.0000   0.2355
  14.700   1.5243   0.02711   0.02114  -0.0082  0.0099  0.6000  -10.2586   0.0000   0.0000   0.0000   0.2351
  14.800   1.5296   0.02751   0.02156  -0.0079  0.0098  0.6000  -10.3933   0.0000   0.0000   0.0000   0.2346
  14.900   1.5348   0.02790   0.02197  -0.0076  0.0097  0.6000  -10.5285   0.0000   0.0000   0.0000   0.2342
  15.000   1.5398   0.02832   0.02241  -0.0073  0.0096  0.6000  -10.6618   0.0000   0.0000   0.0000   0.2338
  15.100   1.5445   0.02876   0.02288  -0.0070  0.0095  0.6000  -10.7926   0.0000   0.0000   0.0000   0.2334
  15.200   1.5490   0.02921   0.02334  -0.0067  0.0094  0.6000  -10.9234   0.0000   0.0000   0.0000   0.2330
  15.300   1.5536   0.02966   0.02381  -0.0063  0.0093  0.6000  -11.0551   0.0000   0.0000   0.0000   0.2325
  15.400   1.5582   0.03011   0.02427  -0.0060  0.0092  0.6000  -11.1875   0.0000   0.0000   0.0000   0.2321
  15.500   1.5627   0.03056   0.02475  -0.0057  0.0090  0.6000  -11.3199   0.0000   0.0000   0.0000   0.2317
  15.600   1.5668   0.03105   0.02526  -0.0054  0.0088  0.6000  -11.4491   0.0000   0.0000   0.0000   0.2313
  15.700   1.5704   0.03158   0.02580  -0.0050  0.0086  0.6000  -11.5746   0.0000   0.0000   0.0000   0.2308
  15.800   1.5740   0.03213   0.02636  -0.0047  0.0084  0.6000  -11.6994   0.0000   0.0000   0.0000   0.2304
  15.900   1.5774   0.03268   0.02692  -0.0044  0.0081  0.6000  -11.8242   0.0000   0.0000   0.0000   0.2299
  16.000   1.5807   0.03323   0.02749  -0.0040  0.0079  0.6000  -11.9478   0.0000   0.0000   0.0000   0.2295
  16.100   1.5839   0.03380   0.02807  -0.0037  0.0076  0.6000  -12.0703   0.0000   0.0000   0.0000   0.2290
  16.200   1.5865   0.03441   0.02869  -0.0033  0.0074  0.6000  -12.1885   0.0000   0.0000   0.0000   0.2286
  16.300   1.5892   0.03503   0.02933  -0.0029  0.0071  0.6000  -12.3071   0.0000   0.0000   0.0000   0.2282
  16.400   1.5923   0.03562   0.02994  -0.0026  0.0070  0.6000  -12.4304   0.0000   0.0000   0.0000   0.2277
  16.500   1.5955   0.03620   0.03054  -0.0023  0.0069  0.6000  -12.5556   0.0000   0.0000   0.0000   0.2273
  16.600   1.5987   0.03678   0.03115  -0.0020  0.0069  0.6000  -12.6812   0.0000   0.0000   0.0000   0.2269
  16.700   1.6016   0.03739   0.03178  -0.0017  0.0067  0.6000  -12.8041   0.0000   0.0000   0.0000   0.2265
  16.800   1.6039   0.03807   0.03249  -0.0014  0.0066  0.6000  -12.9205   0.0000   0.0000   0.0000   0.2261
  16.900   1.6060   0.03876   0.03319  -0.0011  0.0065  0.6000  -13.0368   0.0000   0.0000   0.0000   0.2257
  17.000   1.6083   0.03944   0.03390  -0.0008  0.0064  0.6000  -13.1539   0.0000   0.0000   0.0000   0.2252
  17.100   1.6105   0.04013   0.03461  -0.0005  0.0062  0.6000  -13.2709   0.0000   0.0000   0.0000   0.2248
  17.200   1.6123   0.04087   0.03538  -0.0003  0.0060  0.6000  -13.3840   0.0000   0.0000   0.0000   0.2244
  17.300   1.6131   0.04171   0.03624   0.0000  0.0058  0.6000  -13.4873   0.0000   0.0000   0.0000   0.2240
  17.400   1.6139   0.04258   0.03714   0.0003  0.0055  0.6000  -13.5895   0.0000   0.0000   0.0000   0.2236
  17.500   1.6145   0.04348   0.03805   0.0005  0.0053  0.6000  -13.6904   0.0000   0.0000   0.0000   0.2232
  17.600   1.6150   0.04439   0.03898   0.0008  0.0050  0.6000  -13.7901   0.0000   0.0000   0.0000   0.2228
  17.700   1.6150   0.04538   0.04000   0.0009  0.0048  0.6000  -13.8839   0.0000   0.0000   0.0000   0.2225
  17.800   1.6157   0.04631   0.04096   0.0011  0.0047  0.6000  -13.9857   0.0000   0.0000   0.0000   0.2221
  17.900   1.6168   0.04721   0.04188   0.0012  0.0046  0.6000  -14.0921   0.0000   0.0000   0.0000   0.2218
  18.000   1.6177   0.04813   0.04284   0.0014  0.0044  0.6000  -14.1973   0.0000   0.0000   0.0000   0.2215
  18.100   1.6175   0.04919   0.04393   0.0015  0.0042  0.6000  -14.2889   0.0000   0.0000   0.0000   0.2212
  18.200   1.6168   0.05030   0.04507   0.0016  0.0040  0.6000  -14.3756   0.0000   0.0000   0.0000   0.2209
  18.300   1.6165   0.05138   0.04618   0.0017  0.0038  0.6000  -14.4660   0.0000   0.0000   0.0000   0.2205
  18.400   1.6141   0.05271   0.04754   0.0017  0.0035  0.6000  -14.5328   0.0000   0.0000   0.0000   0.2202
  18.500   1.6108   0.05417   0.04903   0.0017  0.0033  0.6000  -14.5885   0.0000   0.0000   0.0000   0.2200
  18.600   1.6078   0.05562   0.05051   0.0017  0.0030  0.6000  -14.6470   0.0000   0.0000   0.0000   0.2197
  18.700   1.6054   0.05704   0.05197   0.0016  0.0028  0.6000  -14.7118   0.0000   0.0000   0.0000   0.2195
  18.800   1.6041   0.05835   0.05331   0.0015  0.0028  0.6000  -14.7897   0.0000   0.0000   0.0000   0.2193
  18.900   1.6014   0.05984   0.05484   0.0014  0.0025  0.6000  -14.8499   0.0000   0.0000   0.0000   0.2191
  19.000   1.5935   0.06200   0.05705   0.0011  0.0021  0.6000  -14.8472   0.0000   0.0000   0.0000   0.2190
  19.100   1.5856   0.06419   0.05928   0.0008  0.0018  0.6000  -14.8435   0.0000   0.0000   0.0000   0.2190
  19.200   1.5781   0.06637   0.06151   0.0004  0.0015  0.6000  -14.8428   0.0000   0.0000   0.0000   0.2189
  19.300   1.5713   0.06851   0.06370  -0.0001  0.0013  0.6000  -14.8496   0.0000   0.0000   0.0000   0.2189
  19.400   1.5647   0.07066   0.06591  -0.0006  0.0011  0.6000  -14.8576   0.0000   0.0000   0.0000   0.2190
  19.500   1.5575   0.07297   0.06826  -0.0012  0.0010  0.6000  -14.8571   0.0000   0.0000   0.0000   0.2191
  19.600   1.5506   0.07526   0.07061  -0.0019  0.0009  0.6000  -14.8578   0.0000   0.0000   0.0000   0.2193
  19.700   1.5436   0.07762   0.07301  -0.0027  0.0008  0.6000  -14.8569   0.0000   0.0000   0.0000   0.2195
  19.800   1.5386   0.07972   0.07516  -0.0034  0.0008  0.6000  -14.8797   0.0000   0.0000   0.0000   0.2197
  19.900   1.5335   0.08185   0.07733  -0.0042  0.0008  0.6000  -14.9007   0.0000   0.0000   0.0000   0.2199
  20.000   1.5274   0.08419   0.07973  -0.0051  0.0008  0.6000  -14.9058   0.0000   0.0000   0.0000   0.2202


