xflr5 v6.56

 Calculated polar for: HSNLF(1)-0213 AIRFOIL

 1 1 Reynolds number fixed          Mach number fixed         

 xtrf =   0.600 (top)        0.600 (bottom)
 Mach =   0.000     Re =     1.600 e 6     Ncrit =   5.000

  alpha     CL        CD       CDp       Cm    Top Xtr Bot Xtr   Cpmin    Chinge    XCp    
 ------- -------- --------- --------- -------- ------- ------- -------- --------- ---------
  -8.000  -0.7842   0.01272   0.00627  -0.0050  0.6000  0.0084  -6.4469   0.0000   0.0000   0.0000   0.2358
  -7.900  -0.7736   0.01261   0.00615  -0.0050  0.6000  0.0085  -6.3129   0.0000   0.0000   0.0000   0.2358
  -7.800  -0.7629   0.01249   0.00603  -0.0050  0.6000  0.0086  -6.1802   0.0000   0.0000   0.0000   0.2358
  -7.700  -0.7523   0.01238   0.00591  -0.0050  0.6000  0.0087  -6.0488   0.0000   0.0000   0.0000   0.2358
  -7.600  -0.7416   0.01227   0.00579  -0.0050  0.6000  0.0088  -5.9186   0.0000   0.0000   0.0000   0.2357
  -7.500  -0.7309   0.01215   0.00566  -0.0050  0.6000  0.0089  -5.7897   0.0000   0.0000   0.0000   0.2357
  -7.400  -0.7202   0.01204   0.00554  -0.0050  0.6000  0.0089  -5.6621   0.0000   0.0000   0.0000   0.2357
  -7.300  -0.7095   0.01193   0.00542  -0.0050  0.6000  0.0090  -5.5358   0.0000   0.0000   0.0000   0.2357
  -7.200  -0.6987   0.01182   0.00529  -0.0050  0.6000  0.0090  -5.4103   0.0000   0.0000   0.0000   0.2356
  -7.100  -0.6879   0.01171   0.00518  -0.0050  0.6000  0.0091  -5.2859   0.0000   0.0000   0.0000   0.2356
  -7.000  -0.6771   0.01160   0.00506  -0.0050  0.6000  0.0091  -5.1623   0.0000   0.0000   0.0000   0.2355
  -6.900  -0.6663   0.01150   0.00495  -0.0051  0.6000  0.0092  -5.0397   0.0000   0.0000   0.0000   0.2354
  -6.800  -0.6557   0.01136   0.00480  -0.0050  0.6000  0.0094  -4.9238   0.0000   0.0000   0.0000   0.2354
  -6.700  -0.6451   0.01122   0.00465  -0.0050  0.6000  0.0096  -4.8079   0.0000   0.0000   0.0000   0.2354
  -6.600  -0.6343   0.01110   0.00453  -0.0050  0.6000  0.0099  -4.6911   0.0000   0.0000   0.0000   0.2353
  -6.500  -0.6235   0.01098   0.00441  -0.0050  0.6000  0.0101  -4.5741   0.0000   0.0000   0.0000   0.2352
  -6.400  -0.6126   0.01088   0.00431  -0.0051  0.6000  0.0104  -4.4573   0.0000   0.0000   0.0000   0.2351
  -6.300  -0.6017   0.01078   0.00421  -0.0051  0.6000  0.0106  -4.3410   0.0000   0.0000   0.0000   0.2349
  -6.200  -0.5907   0.01069   0.00412  -0.0051  0.6000  0.0108  -4.2257   0.0000   0.0000   0.0000   0.2348
  -6.100  -0.5797   0.01060   0.00403  -0.0052  0.6000  0.0111  -4.1198   0.0000   0.0000   0.0000   0.2346
  -6.000  -0.5687   0.01051   0.00393  -0.0052  0.6000  0.0113  -4.0185   0.0000   0.0000   0.0000   0.2344
  -5.900  -0.5577   0.01042   0.00385  -0.0053  0.6000  0.0116  -3.9182   0.0000   0.0000   0.0000   0.2342
  -5.800  -0.5466   0.01034   0.00376  -0.0053  0.6000  0.0118  -3.8187   0.0000   0.0000   0.0000   0.2340
  -5.700  -0.5356   0.01025   0.00368  -0.0054  0.6000  0.0120  -3.7199   0.0000   0.0000   0.0000   0.2337
  -5.600  -0.5244   0.01018   0.00360  -0.0054  0.6000  0.0123  -3.6217   0.0000   0.0000   0.0000   0.2334
  -5.500  -0.5133   0.01010   0.00352  -0.0055  0.6000  0.0125  -3.5240   0.0000   0.0000   0.0000   0.2331
  -5.400  -0.5021   0.01003   0.00344  -0.0056  0.6000  0.0127  -3.4270   0.0000   0.0000   0.0000   0.2328
  -5.300  -0.4911   0.00994   0.00335  -0.0056  0.6000  0.0131  -3.3339   0.0000   0.0000   0.0000   0.2325
  -5.200  -0.4800   0.00984   0.00326  -0.0057  0.6000  0.0138  -3.2413   0.0000   0.0000   0.0000   0.2322
  -5.100  -0.4689   0.00976   0.00319  -0.0057  0.6000  0.0143  -3.1482   0.0000   0.0000   0.0000   0.2318
  -5.000  -0.4577   0.00968   0.00312  -0.0058  0.6000  0.0148  -3.0557   0.0000   0.0000   0.0000   0.2314
  -4.900  -0.4465   0.00961   0.00304  -0.0059  0.6000  0.0152  -2.9642   0.0000   0.0000   0.0000   0.2309
  -4.800  -0.4353   0.00954   0.00297  -0.0060  0.6000  0.0157  -2.8735   0.0000   0.0000   0.0000   0.2305
  -4.700  -0.4240   0.00947   0.00291  -0.0060  0.6000  0.0162  -2.7837   0.0000   0.0000   0.0000   0.2299
  -4.600  -0.4128   0.00940   0.00284  -0.0061  0.6000  0.0165  -2.6947   0.0000   0.0000   0.0000   0.2294
  -4.500  -0.4015   0.00934   0.00278  -0.0062  0.6000  0.0168  -2.6126   0.0000   0.0000   0.0000   0.2288
  -4.400  -0.3901   0.00928   0.00272  -0.0063  0.6000  0.0171  -2.5354   0.0000   0.0000   0.0000   0.2281
  -4.300  -0.3789   0.00920   0.00264  -0.0064  0.6000  0.0178  -2.4611   0.0000   0.0000   0.0000   0.2274
  -4.200  -0.3676   0.00913   0.00257  -0.0064  0.6000  0.0186  -2.3866   0.0000   0.0000   0.0000   0.2267
  -4.100  -0.3564   0.00906   0.00251  -0.0065  0.6000  0.0194  -2.3119   0.0000   0.0000   0.0000   0.2259
  -4.000  -0.3450   0.00899   0.00246  -0.0066  0.6000  0.0202  -2.2378   0.0000   0.0000   0.0000   0.2251
  -3.900  -0.3337   0.00893   0.00240  -0.0067  0.6000  0.0209  -2.1644   0.0000   0.0000   0.0000   0.2242
  -3.800  -0.3223   0.00887   0.00234  -0.0068  0.6000  0.0215  -2.0917   0.0000   0.0000   0.0000   0.2231
  -3.700  -0.3109   0.00881   0.00228  -0.0069  0.6000  0.0221  -2.0196   0.0000   0.0000   0.0000   0.2220
  -3.600  -0.2995   0.00876   0.00223  -0.0070  0.6000  0.0225  -1.9482   0.0000   0.0000   0.0000   0.2208
  -3.500  -0.2881   0.00870   0.00218  -0.0071  0.6000  0.0234  -1.8784   0.0000   0.0000   0.0000   0.2195
  -3.400  -0.2768   0.00864   0.00212  -0.0072  0.6000  0.0249  -1.8092   0.0000   0.0000   0.0000   0.2181
  -3.300  -0.2654   0.00857   0.00207  -0.0073  0.6000  0.0262  -1.7405   0.0000   0.0000   0.0000   0.2166
  -3.200  -0.2540   0.00851   0.00202  -0.0074  0.6000  0.0277  -1.6724   0.0000   0.0000   0.0000   0.2149
  -3.100  -0.2426   0.00846   0.00198  -0.0075  0.6000  0.0292  -1.6050   0.0000   0.0000   0.0000   0.2131
  -3.000  -0.2312   0.00839   0.00193  -0.0076  0.6000  0.0324  -1.5388   0.0000   0.0000   0.0000   0.2111
  -2.900  -0.2199   0.00832   0.00188  -0.0078  0.6000  0.0361  -1.4733   0.0000   0.0000   0.0000   0.2088
  -2.800  -0.2085   0.00824   0.00183  -0.0079  0.6000  0.0409  -1.4085   0.0000   0.0000   0.0000   0.2063
  -2.700  -0.1972   0.00816   0.00178  -0.0080  0.6000  0.0476  -1.3449   0.0000   0.0000   0.0000   0.2036
  -2.600  -0.1858   0.00809   0.00174  -0.0081  0.6000  0.0535  -1.2818   0.0000   0.0000   0.0000   0.2004
  -2.500  -0.1745   0.00801   0.00169  -0.0082  0.6000  0.0603  -1.2197   0.0000   0.0000   0.0000   0.1969
  -2.400  -0.1631   0.00795   0.00165  -0.0083  0.6000  0.0653  -1.1579   0.0000   0.0000   0.0000   0.1928
  -2.300  -0.1517   0.00787   0.00161  -0.0084  0.6000  0.0741  -1.0975   0.0000   0.0000   0.0000   0.1881
  -2.200  -0.1403   0.00781   0.00157  -0.0085  0.6000  0.0807  -1.0374   0.0000   0.0000   0.0000   0.1825
  -2.100  -0.1290   0.00772   0.00153  -0.0086  0.6000  0.0929  -0.9788   0.0000   0.0000   0.0000   0.1761
  -2.000  -0.1178   0.00761   0.00148  -0.0088  0.6000  0.1098  -0.9212   0.0000   0.0000   0.0000   0.1686
  -1.900  -0.1066   0.00748   0.00143  -0.0089  0.6000  0.1310  -0.8662   0.0000   0.0000   0.0000   0.1595
  -1.800  -0.0955   0.00735   0.00138  -0.0090  0.6000  0.1561  -0.8174   0.0000   0.0000   0.0000   0.1484
  -1.700  -0.0845   0.00720   0.00133  -0.0091  0.6000  0.1832  -0.7694   0.0000   0.0000   0.0000   0.1344
  -1.600  -0.0733   0.00709   0.00129  -0.0092  0.6000  0.2062  -0.7215   0.0000   0.0000   0.0000   0.1157
  -1.500  -0.0621   0.00697   0.00125  -0.0093  0.6000  0.2285  -0.6780   0.0000   0.0000   0.0000   0.0901
  -1.400  -0.0509   0.00684   0.00120  -0.0095  0.6000  0.2552  -0.6373   0.0000   0.0000   0.0000   0.0536
  -1.300  -0.0401   0.00663   0.00114  -0.0096  0.6000  0.2992  -0.5978   0.0000   0.0000   0.0000  -0.0009
  -1.200  -0.0298   0.00633   0.00106  -0.0097  0.6000  0.3643  -0.5596   0.0000   0.0000   0.0000  -0.0904
  -1.100  -0.0192   0.00605   0.00099  -0.0098  0.6000  0.4249  -0.5216   0.0000   0.0000   0.0000  -0.2799
  -1.000  -0.0084   0.00582   0.00092  -0.0099  0.6000  0.4740  -0.4834   0.0000   0.0000   0.0000  -0.9673
  -0.900   0.0017   0.00544   0.00081  -0.0100  0.6000  0.5515  -0.4500   0.0000   0.0000   0.0000   6.1851
  -0.800   0.0126   0.00520   0.00073  -0.0101  0.6000  0.6000  -0.4352   0.0000   0.0000   0.0000   1.0780
  -0.700   0.0245   0.00520   0.00072  -0.0103  0.6000  0.6000  -0.4395   0.0000   0.0000   0.0000   0.6804
  -0.600   0.0364   0.00520   0.00072  -0.0105  0.6000  0.6000  -0.4439   0.0000   0.0000   0.0000   0.5431
  -0.500   0.0483   0.00520   0.00071  -0.0107  0.6000  0.6000  -0.4482   0.0000   0.0000   0.0000   0.4736
  -0.400   0.0602   0.00520   0.00071  -0.0108  0.6000  0.6000  -0.4526   0.0000   0.0000   0.0000   0.4316
  -0.300   0.0721   0.00520   0.00070  -0.0110  0.6000  0.6000  -0.4569   0.0000   0.0000   0.0000   0.4034
  -0.200   0.0840   0.00520   0.00070  -0.0112  0.6000  0.6000  -0.4612   0.0000   0.0000   0.0000   0.3833
  -0.100   0.0959   0.00521   0.00070  -0.0114  0.6000  0.6000  -0.4656   0.0000   0.0000   0.0000   0.3681
   0.000   0.1078   0.00521   0.00069  -0.0116  0.6000  0.6000  -0.4699   0.0000   0.0000   0.0000   0.3563
   0.100   0.1197   0.00521   0.00069  -0.0118  0.6000  0.6000  -0.4743   0.0000   0.0000   0.0000   0.3469
   0.200   0.1316   0.00521   0.00069  -0.0119  0.6000  0.6000  -0.4786   0.0000   0.0000   0.0000   0.3391
   0.300   0.1435   0.00521   0.00069  -0.0121  0.6000  0.6000  -0.4829   0.0000   0.0000   0.0000   0.3326
   0.400   0.1554   0.00521   0.00070  -0.0123  0.6000  0.6000  -0.4874   0.0000   0.0000   0.0000   0.3272
   0.500   0.1673   0.00522   0.00070  -0.0125  0.6000  0.6000  -0.4919   0.0000   0.0000   0.0000   0.3225
   0.600   0.1792   0.00522   0.00070  -0.0127  0.6000  0.6000  -0.4965   0.0000   0.0000   0.0000   0.3184
   0.700   0.1911   0.00522   0.00070  -0.0129  0.6000  0.6000  -0.5010   0.0000   0.0000   0.0000   0.3148
   0.800   0.2030   0.00523   0.00071  -0.0130  0.6000  0.6000  -0.5055   0.0000   0.0000   0.0000   0.3117
   0.900   0.2149   0.00523   0.00071  -0.0132  0.6000  0.6000  -0.5103   0.0000   0.0000   0.0000   0.3089
   1.000   0.2268   0.00523   0.00072  -0.0134  0.6000  0.6000  -0.5172   0.0000   0.0000   0.0000   0.3063
   1.100   0.2387   0.00524   0.00072  -0.0136  0.6000  0.6000  -0.5243   0.0000   0.0000   0.0000   0.3041
   1.200   0.2506   0.00524   0.00073  -0.0138  0.6000  0.6000  -0.5323   0.0000   0.0000   0.0000   0.3020
   1.300   0.2625   0.00524   0.00074  -0.0140  0.6000  0.6000  -0.5415   0.0000   0.0000   0.0000   0.3001
   1.400   0.2744   0.00525   0.00074  -0.0142  0.6000  0.6000  -0.5521   0.0000   0.0000   0.0000   0.2984
   1.500   0.2862   0.00525   0.00075  -0.0143  0.6000  0.6000  -0.5658   0.0000   0.0000   0.0000   0.2969
   1.600   0.2981   0.00526   0.00076  -0.0145  0.6000  0.6000  -0.5832   0.0000   0.0000   0.0000   0.2954
   1.700   0.3100   0.00526   0.00077  -0.0147  0.6000  0.6000  -0.6010   0.0000   0.0000   0.0000   0.2941
   1.800   0.3219   0.00526   0.00078  -0.0149  0.6000  0.6000  -0.6207   0.0000   0.0000   0.0000   0.2928
   1.900   0.3335   0.00531   0.00080  -0.0151  0.5911  0.6000  -0.6455   0.0000   0.0000   0.0000   0.2916
   2.000   0.3448   0.00543   0.00083  -0.0152  0.5692  0.6000  -0.6701   0.0000   0.0000   0.0000   0.2904
   2.100   0.3558   0.00559   0.00089  -0.0153  0.5405  0.6000  -0.6946   0.0000   0.0000   0.0000   0.2893
   2.200   0.3662   0.00586   0.00099  -0.0154  0.4993  0.6000  -0.7185   0.0000   0.0000   0.0000   0.2882
   2.300   0.3767   0.00614   0.00110  -0.0155  0.4592  0.6000  -0.7456   0.0000   0.0000   0.0000   0.2872
   2.400   0.3875   0.00634   0.00119  -0.0156  0.4292  0.6000  -0.7799   0.0000   0.0000   0.0000   0.2863
   2.500   0.3984   0.00651   0.00127  -0.0157  0.4056  0.6000  -0.8160   0.0000   0.0000   0.0000   0.2854
   2.600   0.4095   0.00665   0.00133  -0.0159  0.3863  0.6000  -0.8528   0.0000   0.0000   0.0000   0.2846
   2.700   0.4204   0.00681   0.00141  -0.0160  0.3649  0.6000  -0.8896   0.0000   0.0000   0.0000   0.2838
   2.900   0.4422   0.00714   0.00156  -0.0162  0.3220  0.6000  -0.9642   0.0000   0.0000   0.0000   0.2824
   3.000   0.4528   0.00734   0.00166  -0.0163  0.2938  0.6000  -1.0014   0.0000   0.0000   0.0000   0.2816
   3.100   0.4632   0.00758   0.00176  -0.0164  0.2638  0.6000  -1.0384   0.0000   0.0000   0.0000   0.2809
   3.200   0.4738   0.00777   0.00185  -0.0165  0.2389  0.6000  -1.0762   0.0000   0.0000   0.0000   0.2803
   3.300   0.4845   0.00794   0.00194  -0.0166  0.2178  0.6000  -1.1145   0.0000   0.0000   0.0000   0.2796
   3.400   0.4952   0.00811   0.00202  -0.0167  0.1990  0.6000  -1.1533   0.0000   0.0000   0.0000   0.2790
   3.500   0.5060   0.00826   0.00210  -0.0168  0.1828  0.6000  -1.1925   0.0000   0.0000   0.0000   0.2784
   3.600   0.5169   0.00840   0.00218  -0.0169  0.1681  0.6000  -1.2322   0.0000   0.0000   0.0000   0.2778
   3.700   0.5277   0.00853   0.00226  -0.0170  0.1557  0.6000  -1.2722   0.0000   0.0000   0.0000   0.2772
   3.800   0.5388   0.00863   0.00232  -0.0171  0.1469  0.6000  -1.3132   0.0000   0.0000   0.0000   0.2767
   3.900   0.5497   0.00875   0.00240  -0.0172  0.1364  0.6000  -1.3540   0.0000   0.0000   0.0000   0.2762
   4.000   0.5608   0.00885   0.00246  -0.0173  0.1286  0.6000  -1.3956   0.0000   0.0000   0.0000   0.2757
   4.100   0.5716   0.00897   0.00254  -0.0174  0.1192  0.6000  -1.4392   0.0000   0.0000   0.0000   0.2751
   4.200   0.5827   0.00906   0.00260  -0.0175  0.1129  0.6000  -1.4866   0.0000   0.0000   0.0000   0.2747
   4.300   0.5935   0.00918   0.00268  -0.0176  0.1041  0.6000  -1.5336   0.0000   0.0000   0.0000   0.2742
   4.400   0.6046   0.00927   0.00275  -0.0177  0.0987  0.6000  -1.5818   0.0000   0.0000   0.0000   0.2737
   4.500   0.6155   0.00937   0.00282  -0.0178  0.0925  0.6000  -1.6300   0.0000   0.0000   0.0000   0.2733
   4.600   0.6264   0.00949   0.00291  -0.0179  0.0855  0.6000  -1.6785   0.0000   0.0000   0.0000   0.2728
   4.700   0.6375   0.00957   0.00297  -0.0180  0.0818  0.6000  -1.7279   0.0000   0.0000   0.0000   0.2724
   4.800   0.6483   0.00968   0.00305  -0.0181  0.0762  0.6000  -1.7772   0.0000   0.0000   0.0000   0.2719
   4.900   0.6591   0.00979   0.00314  -0.0181  0.0696  0.6000  -1.8267   0.0000   0.0000   0.0000   0.2715
   5.000   0.6700   0.00988   0.00321  -0.0182  0.0660  0.6000  -1.8772   0.0000   0.0000   0.0000   0.2711
   5.100   0.6808   0.01000   0.00330  -0.0183  0.0610  0.6000  -1.9275   0.0000   0.0000   0.0000   0.2707
   5.200   0.6915   0.01012   0.00338  -0.0184  0.0557  0.6000  -1.9782   0.0000   0.0000   0.0000   0.2703
   5.300   0.7025   0.01020   0.00345  -0.0184  0.0537  0.6000  -2.0300   0.0000   0.0000   0.0000   0.2699
   5.400   0.7134   0.01029   0.00353  -0.0185  0.0515  0.6000  -2.0820   0.0000   0.0000   0.0000   0.2695
   5.500   0.7242   0.01039   0.00361  -0.0186  0.0491  0.6000  -2.1342   0.0000   0.0000   0.0000   0.2691
   5.600   0.7350   0.01049   0.00371  -0.0187  0.0465  0.6000  -2.1866   0.0000   0.0000   0.0000   0.2687
   5.700   0.7458   0.01058   0.00379  -0.0187  0.0438  0.6000  -2.2395   0.0000   0.0000   0.0000   0.2684
   5.800   0.7567   0.01066   0.00386  -0.0188  0.0426  0.6000  -2.2931   0.0000   0.0000   0.0000   0.2680
   5.900   0.7676   0.01075   0.00394  -0.0189  0.0415  0.6000  -2.3472   0.0000   0.0000   0.0000   0.2677
   6.000   0.7784   0.01084   0.00403  -0.0190  0.0402  0.6000  -2.4014   0.0000   0.0000   0.0000   0.2673
   6.100   0.7891   0.01094   0.00412  -0.0190  0.0386  0.6000  -2.4558   0.0000   0.0000   0.0000   0.2670
   6.200   0.7998   0.01105   0.00421  -0.0191  0.0370  0.6000  -2.5103   0.0000   0.0000   0.0000   0.2666
   6.300   0.8104   0.01115   0.00431  -0.0191  0.0351  0.6000  -2.5650   0.0000   0.0000   0.0000   0.2662
   6.400   0.8211   0.01125   0.00440  -0.0192  0.0333  0.6000  -2.6251   0.0000   0.0000   0.0000   0.2659
   6.500   0.8318   0.01134   0.00449  -0.0192  0.0327  0.6000  -2.6871   0.0000   0.0000   0.0000   0.2655
   6.600   0.8425   0.01143   0.00458  -0.0193  0.0321  0.6000  -2.7495   0.0000   0.0000   0.0000   0.2652
   6.700   0.8532   0.01152   0.00468  -0.0193  0.0314  0.6000  -2.8123   0.0000   0.0000   0.0000   0.2649
   6.800   0.8638   0.01162   0.00477  -0.0194  0.0306  0.6000  -2.8753   0.0000   0.0000   0.0000   0.2645
   6.900   0.8743   0.01173   0.00488  -0.0194  0.0298  0.6000  -2.9386   0.0000   0.0000   0.0000   0.2642
   7.000   0.8848   0.01184   0.00498  -0.0195  0.0289  0.6000  -3.0020   0.0000   0.0000   0.0000   0.2639
   7.100   0.8951   0.01196   0.00509  -0.0195  0.0279  0.6000  -3.0657   0.0000   0.0000   0.0000   0.2635
   7.200   0.9055   0.01207   0.00520  -0.0195  0.0269  0.6000  -3.1295   0.0000   0.0000   0.0000   0.2632
   7.300   0.9159   0.01219   0.00531  -0.0195  0.0258  0.6000  -3.1933   0.0000   0.0000   0.0000   0.2628
   7.400   0.9263   0.01230   0.00542  -0.0195  0.0251  0.6000  -3.2579   0.0000   0.0000   0.0000   0.2625
   7.500   0.9367   0.01239   0.00552  -0.0195  0.0250  0.6000  -3.3241   0.0000   0.0000   0.0000   0.2622
   7.600   0.9472   0.01249   0.00563  -0.0196  0.0248  0.6000  -3.3906   0.0000   0.0000   0.0000   0.2618
   7.700   0.9576   0.01260   0.00574  -0.0196  0.0246  0.6000  -3.4572   0.0000   0.0000   0.0000   0.2615
   7.800   0.9679   0.01270   0.00585  -0.0196  0.0243  0.6000  -3.5242   0.0000   0.0000   0.0000   0.2612
   7.900   0.9782   0.01281   0.00597  -0.0196  0.0241  0.6000  -3.5914   0.0000   0.0000   0.0000   0.2609
   8.000   0.9884   0.01292   0.00608  -0.0196  0.0238  0.6000  -3.6589   0.0000   0.0000   0.0000   0.2605
   8.100   0.9986   0.01304   0.00620  -0.0196  0.0235  0.6000  -3.7266   0.0000   0.0000   0.0000   0.2602
   8.200   1.0087   0.01315   0.00632  -0.0196  0.0233  0.6000  -3.7947   0.0000   0.0000   0.0000   0.2599
   8.300   1.0188   0.01327   0.00645  -0.0196  0.0230  0.6000  -3.8630   0.0000   0.0000   0.0000   0.2595
   8.400   1.0288   0.01339   0.00658  -0.0196  0.0227  0.6000  -3.9316   0.0000   0.0000   0.0000   0.2592
   8.500   1.0388   0.01352   0.00671  -0.0195  0.0224  0.6000  -4.0003   0.0000   0.0000   0.0000   0.2588
   8.600   1.0486   0.01365   0.00684  -0.0195  0.0221  0.6000  -4.0692   0.0000   0.0000   0.0000   0.2585
   8.700   1.0584   0.01379   0.00698  -0.0194  0.0218  0.6000  -4.1406   0.0000   0.0000   0.0000   0.2581
   8.800   1.0682   0.01392   0.00712  -0.0194  0.0215  0.6000  -4.2163   0.0000   0.0000   0.0000   0.2578
   8.900   1.0779   0.01406   0.00726  -0.0193  0.0212  0.6000  -4.2921   0.0000   0.0000   0.0000   0.2574
   9.000   1.0875   0.01421   0.00741  -0.0192  0.0209  0.6000  -4.3681   0.0000   0.0000   0.0000   0.2571
   9.100   1.0970   0.01435   0.00756  -0.0192  0.0206  0.6000  -4.4440   0.0000   0.0000   0.0000   0.2567
   9.200   1.1064   0.01451   0.00772  -0.0191  0.0202  0.6000  -4.5198   0.0000   0.0000   0.0000   0.2563
   9.300   1.1157   0.01467   0.00789  -0.0189  0.0198  0.6000  -4.5953   0.0000   0.0000   0.0000   0.2559
   9.400   1.1248   0.01484   0.00808  -0.0188  0.0193  0.6000  -4.6700   0.0000   0.0000   0.0000   0.2555
   9.500   1.1337   0.01503   0.00828  -0.0187  0.0189  0.6000  -4.7441   0.0000   0.0000   0.0000   0.2551
   9.600   1.1433   0.01515   0.00840  -0.0186  0.0188  0.6000  -4.8251   0.0000   0.0000   0.0000   0.2548
   9.700   1.1529   0.01527   0.00853  -0.0185  0.0187  0.6000  -4.9064   0.0000   0.0000   0.0000   0.2545
   9.800   1.1623   0.01540   0.00867  -0.0184  0.0186  0.6000  -4.9879   0.0000   0.0000   0.0000   0.2541
   9.900   1.1717   0.01553   0.00882  -0.0184  0.0185  0.6000  -5.0693   0.0000   0.0000   0.0000   0.2538
  10.000   1.1809   0.01567   0.00896  -0.0183  0.0183  0.6000  -5.1506   0.0000   0.0000   0.0000   0.2534
  10.100   1.1900   0.01581   0.00911  -0.0181  0.0182  0.6000  -5.2317   0.0000   0.0000   0.0000   0.2530
  10.200   1.1990   0.01596   0.00927  -0.0180  0.0180  0.6000  -5.3126   0.0000   0.0000   0.0000   0.2527
  10.300   1.2079   0.01611   0.00944  -0.0179  0.0178  0.6000  -5.3933   0.0000   0.0000   0.0000   0.2523
  10.400   1.2166   0.01627   0.00961  -0.0177  0.0176  0.6000  -5.4739   0.0000   0.0000   0.0000   0.2519
  10.500   1.2252   0.01644   0.00978  -0.0175  0.0174  0.6000  -5.5543   0.0000   0.0000   0.0000   0.2515
  10.600   1.2333   0.01661   0.00996  -0.0172  0.0172  0.6000  -5.6326   0.0000   0.0000   0.0000   0.2510
  10.700   1.2405   0.01678   0.01014  -0.0168  0.0170  0.6000  -5.7077   0.0000   0.0000   0.0000   0.2505
  10.800   1.2474   0.01696   0.01034  -0.0164  0.0169  0.6000  -5.7817   0.0000   0.0000   0.0000   0.2499
  10.900   1.2548   0.01716   0.01055  -0.0161  0.0167  0.6000  -5.8582   0.0000   0.0000   0.0000   0.2494
  11.000   1.2624   0.01737   0.01077  -0.0158  0.0165  0.6000  -5.9360   0.0000   0.0000   0.0000   0.2489
  11.100   1.2701   0.01759   0.01100  -0.0156  0.0163  0.6000  -6.0145   0.0000   0.0000   0.0000   0.2485
  11.200   1.2777   0.01782   0.01124  -0.0154  0.0162  0.6000  -6.0931   0.0000   0.0000   0.0000   0.2481
  11.300   1.2853   0.01805   0.01148  -0.0152  0.0160  0.6000  -6.1718   0.0000   0.0000   0.0000   0.2477
  11.400   1.2928   0.01829   0.01174  -0.0150  0.0158  0.6000  -6.2506   0.0000   0.0000   0.0000   0.2473
  11.500   1.3003   0.01854   0.01200  -0.0148  0.0156  0.6000  -6.3347   0.0000   0.0000   0.0000   0.2469
  11.600   1.3077   0.01880   0.01226  -0.0146  0.0154  0.6000  -6.4196   0.0000   0.0000   0.0000   0.2466
  11.700   1.3149   0.01906   0.01253  -0.0143  0.0153  0.6000  -6.5044   0.0000   0.0000   0.0000   0.2462
  11.800   1.3221   0.01932   0.01281  -0.0141  0.0151  0.6000  -6.5889   0.0000   0.0000   0.0000   0.2457
  11.900   1.3292   0.01960   0.01309  -0.0139  0.0148  0.6000  -6.6733   0.0000   0.0000   0.0000   0.2453
  12.000   1.3361   0.01988   0.01339  -0.0136  0.0146  0.6000  -6.7574   0.0000   0.0000   0.0000   0.2449
  12.100   1.3429   0.02018   0.01370  -0.0134  0.0143  0.6000  -6.8406   0.0000   0.0000   0.0000   0.2445
  12.200   1.3494   0.02050   0.01403  -0.0131  0.0141  0.6000  -6.9227   0.0000   0.0000   0.0000   0.2441
  12.300   1.3562   0.02079   0.01434  -0.0128  0.0139  0.6000  -7.0074   0.0000   0.0000   0.0000   0.2437
  12.400   1.3634   0.02105   0.01461  -0.0126  0.0139  0.6000  -7.0956   0.0000   0.0000   0.0000   0.2433
  12.500   1.3705   0.02131   0.01490  -0.0124  0.0138  0.6000  -7.1838   0.0000   0.0000   0.0000   0.2429
  12.600   1.3775   0.02159   0.01519  -0.0122  0.0138  0.6000  -7.3045   0.0000   0.0000   0.0000   0.2425
  12.700   1.3844   0.02187   0.01549  -0.0120  0.0137  0.6000  -7.4331   0.0000   0.0000   0.0000   0.2421
  12.800   1.3912   0.02216   0.01579  -0.0118  0.0136  0.6000  -7.5623   0.0000   0.0000   0.0000   0.2418
  12.900   1.3980   0.02245   0.01610  -0.0115  0.0135  0.6000  -7.6919   0.0000   0.0000   0.0000   0.2414
  13.000   1.4046   0.02275   0.01642  -0.0113  0.0134  0.6000  -7.8208   0.0000   0.0000   0.0000   0.2410
  13.100   1.4110   0.02306   0.01675  -0.0110  0.0133  0.6000  -7.9497   0.0000   0.0000   0.0000   0.2406
  13.200   1.4174   0.02338   0.01709  -0.0108  0.0131  0.6000  -8.0788   0.0000   0.0000   0.0000   0.2402
  13.300   1.4237   0.02370   0.01742  -0.0105  0.0130  0.6000  -8.2085   0.0000   0.0000   0.0000   0.2398
  13.400   1.4300   0.02402   0.01776  -0.0103  0.0129  0.6000  -8.3387   0.0000   0.0000   0.0000   0.2394
  13.500   1.4362   0.02436   0.01812  -0.0100  0.0128  0.6000  -8.4686   0.0000   0.0000   0.0000   0.2390
  13.600   1.4422   0.02471   0.01848  -0.0097  0.0126  0.6000  -8.5981   0.0000   0.0000   0.0000   0.2386
  13.700   1.4481   0.02506   0.01885  -0.0095  0.0125  0.6000  -8.7278   0.0000   0.0000   0.0000   0.2382
  13.800   1.4539   0.02541   0.01922  -0.0092  0.0123  0.6000  -8.8577   0.0000   0.0000   0.0000   0.2378
  13.900   1.4597   0.02577   0.01959  -0.0089  0.0122  0.6000  -8.9879   0.0000   0.0000   0.0000   0.2373
  14.000   1.4653   0.02614   0.01998  -0.0086  0.0120  0.6000  -9.1178   0.0000   0.0000   0.0000   0.2369
  14.100   1.4707   0.02653   0.02038  -0.0083  0.0119  0.6000  -9.2466   0.0000   0.0000   0.0000   0.2365
  14.200   1.4760   0.02692   0.02079  -0.0080  0.0117  0.6000  -9.3752   0.0000   0.0000   0.0000   0.2361
  14.300   1.4813   0.02733   0.02120  -0.0077  0.0116  0.6000  -9.5043   0.0000   0.0000   0.0000   0.2357
  14.400   1.4866   0.02773   0.02162  -0.0074  0.0114  0.6000  -9.6340   0.0000   0.0000   0.0000   0.2353
  14.500   1.4918   0.02814   0.02204  -0.0071  0.0112  0.6000  -9.7640   0.0000   0.0000   0.0000   0.2348
  14.600   1.4968   0.02856   0.02248  -0.0068  0.0111  0.6000  -9.8928   0.0000   0.0000   0.0000   0.2344
  14.700   1.5014   0.02901   0.02294  -0.0065  0.0109  0.6000  -10.0192   0.0000   0.0000   0.0000   0.2340
  14.800   1.5060   0.02946   0.02341  -0.0062  0.0108  0.6000  -10.1452   0.0000   0.0000   0.0000   0.2336
  14.900   1.5105   0.02992   0.02388  -0.0059  0.0106  0.6000  -10.2718   0.0000   0.0000   0.0000   0.2331
  15.000   1.5150   0.03038   0.02436  -0.0055  0.0104  0.6000  -10.3990   0.0000   0.0000   0.0000   0.2327
  15.100   1.5195   0.03084   0.02484  -0.0052  0.0103  0.6000  -10.5266   0.0000   0.0000   0.0000   0.2323
  15.200   1.5238   0.03133   0.02535  -0.0049  0.0101  0.6000  -10.6521   0.0000   0.0000   0.0000   0.2318
  15.300   1.5280   0.03182   0.02588  -0.0046  0.0101  0.6000  -10.7780   0.0000   0.0000   0.0000   0.2314
  15.400   1.5321   0.03232   0.02640  -0.0043  0.0100  0.6000  -10.9040   0.0000   0.0000   0.0000   0.2310
  15.500   1.5362   0.03282   0.02692  -0.0040  0.0100  0.6000  -11.0310   0.0000   0.0000   0.0000   0.2306
  15.600   1.5404   0.03332   0.02745  -0.0037  0.0099  0.6000  -11.1586   0.0000   0.0000   0.0000   0.2302
  15.700   1.5445   0.03382   0.02797  -0.0034  0.0099  0.6000  -11.2860   0.0000   0.0000   0.0000   0.2298
  15.800   1.5482   0.03434   0.02852  -0.0031  0.0098  0.6000  -11.4111   0.0000   0.0000   0.0000   0.2293
  15.900   1.5516   0.03491   0.02911  -0.0028  0.0097  0.6000  -11.5328   0.0000   0.0000   0.0000   0.2289
  16.000   1.5549   0.03548   0.02970  -0.0025  0.0096  0.6000  -11.6547   0.0000   0.0000   0.0000   0.2285
  16.100   1.5583   0.03604   0.03029  -0.0022  0.0095  0.6000  -11.7780   0.0000   0.0000   0.0000   0.2281
  16.200   1.5618   0.03661   0.03088  -0.0019  0.0094  0.6000  -11.9023   0.0000   0.0000   0.0000   0.2277
  16.300   1.5652   0.03718   0.03148  -0.0016  0.0093  0.6000  -12.0267   0.0000   0.0000   0.0000   0.2273
  16.400   1.5681   0.03780   0.03212  -0.0013  0.0091  0.6000  -12.1468   0.0000   0.0000   0.0000   0.2269
  16.500   1.5706   0.03846   0.03280  -0.0010  0.0090  0.6000  -12.2634   0.0000   0.0000   0.0000   0.2265
  16.600   1.5732   0.03912   0.03348  -0.0007  0.0088  0.6000  -12.3808   0.0000   0.0000   0.0000   0.2261
  16.700   1.5758   0.03977   0.03415  -0.0005  0.0086  0.6000  -12.4989   0.0000   0.0000   0.0000   0.2257
  16.800   1.5783   0.04043   0.03483  -0.0002  0.0084  0.6000  -12.6168   0.0000   0.0000   0.0000   0.2253
  16.900   1.5806   0.04113   0.03555   0.0001  0.0083  0.6000  -12.7321   0.0000   0.0000   0.0000   0.2249
  17.000   1.5822   0.04190   0.03635   0.0003  0.0081  0.6000  -12.8416   0.0000   0.0000   0.0000   0.2245
  17.100   1.5839   0.04269   0.03715   0.0005  0.0079  0.6000  -12.9513   0.0000   0.0000   0.0000   0.2241
  17.200   1.5857   0.04346   0.03795   0.0007  0.0078  0.6000  -13.0628   0.0000   0.0000   0.0000   0.2237
  17.300   1.5876   0.04425   0.03875   0.0009  0.0076  0.6000  -13.1751   0.0000   0.0000   0.0000   0.2234
  17.400   1.5889   0.04509   0.03963   0.0011  0.0074  0.6000  -13.2820   0.0000   0.0000   0.0000   0.2230
  17.500   1.5900   0.04599   0.04054   0.0013  0.0073  0.6000  -13.3859   0.0000   0.0000   0.0000   0.2227
  17.600   1.5914   0.04686   0.04144   0.0014  0.0071  0.6000  -13.4931   0.0000   0.0000   0.0000   0.2224
  17.700   1.5931   0.04770   0.04231   0.0015  0.0071  0.6000  -13.6047   0.0000   0.0000   0.0000   0.2221
  17.800   1.5946   0.04857   0.04321   0.0016  0.0070  0.6000  -13.7142   0.0000   0.0000   0.0000   0.2218
  17.900   1.5954   0.04953   0.04420   0.0017  0.0069  0.6000  -13.8150   0.0000   0.0000   0.0000   0.2215
  18.000   1.5962   0.05048   0.04518   0.0018  0.0068  0.6000  -13.9176   0.0000   0.0000   0.0000   0.2212
  18.100   1.5973   0.05142   0.04615   0.0019  0.0068  0.6000  -14.0221   0.0000   0.0000   0.0000   0.2209
  18.200   1.5980   0.05241   0.04719   0.0019  0.0067  0.6000  -14.1231   0.0000   0.0000   0.0000   0.2206
  18.300   1.5980   0.05351   0.04831   0.0019  0.0066  0.6000  -14.2163   0.0000   0.0000   0.0000   0.2203
  18.400   1.5982   0.05458   0.04942   0.0019  0.0065  0.6000  -14.3119   0.0000   0.0000   0.0000   0.2201
  18.500   1.5986   0.05565   0.05052   0.0018  0.0063  0.6000  -14.4092   0.0000   0.0000   0.0000   0.2199
  18.600   1.5980   0.05686   0.05176   0.0018  0.0062  0.6000  -14.4954   0.0000   0.0000   0.0000   0.2197
  18.700   1.5973   0.05809   0.05303   0.0017  0.0061  0.6000  -14.5794   0.0000   0.0000   0.0000   0.2195
  18.800   1.5967   0.05932   0.05428   0.0015  0.0059  0.6000  -14.6655   0.0000   0.0000   0.0000   0.2193
  18.900   1.5950   0.06071   0.05571   0.0014  0.0058  0.6000  -14.7379   0.0000   0.0000   0.0000   0.2191
  19.000   1.5929   0.06216   0.05719   0.0012  0.0056  0.6000  -14.8051   0.0000   0.0000   0.0000   0.2190
  19.100   1.5905   0.06365   0.05872   0.0009  0.0054  0.6000  -14.8684   0.0000   0.0000   0.0000   0.2189
  19.200   1.5867   0.06534   0.06044   0.0006  0.0052  0.6000  -14.9152   0.0000   0.0000   0.0000   0.2188
  19.300   1.5833   0.06699   0.06212   0.0003  0.0050  0.6000  -14.9648   0.0000   0.0000   0.0000   0.2187
  19.400   1.5791   0.06879   0.06396  -0.0001  0.0048  0.6000  -15.0051   0.0000   0.0000   0.0000   0.2187
  19.500   1.5763   0.07043   0.06564  -0.0005  0.0046  0.6000  -15.0603   0.0000   0.0000   0.0000   0.2187
  19.600   1.5724   0.07225   0.06750  -0.0010  0.0045  0.6000  -15.1025   0.0000   0.0000   0.0000   0.2187
  19.700   1.5686   0.07407   0.06937  -0.0015  0.0044  0.6000  -15.1443   0.0000   0.0000   0.0000   0.2187
  19.800   1.5638   0.07608   0.07141  -0.0021  0.0042  0.6000  -15.1726   0.0000   0.0000   0.0000   0.2189
  19.900   1.5591   0.07808   0.07346  -0.0028  0.0041  0.6000  -15.2010   0.0000   0.0000   0.0000   0.2190
  20.000   1.5532   0.08031   0.07573  -0.0035  0.0039  0.6000  -15.2126   0.0000   0.0000   0.0000   0.2192


